data/d_2383wp.m
% Polish 2383-bus system
% Converted from Matpower format to PSAT (MATLAB) format, using PowerSAS.m.

% Source of Polish 2383-bus system can be found in Matpower: https://matpower.org/
% 
% Power flow solution of this data file has been verified with Matpower

%bus data: 2383
Bus.con = [...
     1   220.0000     1.0946    -0.0261      1      1
     2   220.0000     1.0854    -0.0176      1      1
     3   220.0000     1.0746    -0.4574      1      1
     4   220.0000     1.0714    -0.1486      1      1
     5   220.0000     1.0665    -0.3316      1      1
     6   400.0000     1.0236    -0.2412      1      1
     7   220.0000     1.0598    -0.3743      1      1
     8   400.0000     1.0275    -0.1812      1      1
     9   400.0000     1.0357    -0.2945      1      1
    10   220.0000     1.1082    -0.3604      1      1
    11   220.0000     1.0778    -0.1233      1      1
    12   220.0000     1.0668    -0.4174      1      1
    13   220.0000     1.0652    -0.3751      1      1
    14   220.0000     1.0664    -0.0885      1      1
    15   400.0000     1.0094    -0.2674      1      1
    16   220.0000     1.0974    -0.0172      1      1
    17   220.0000     1.0910    -0.0026      1      1
    18   400.0000     1.0337     0.0000      1      1
    19   220.0000     1.0659    -0.3959      1      1
    20   400.0000     1.0371    -0.0338      1      1
    21   220.0000     1.0595    -0.3818      1      1
    22   220.0000     1.0814    -0.2162      1      1
    23   220.0000     1.0624    -0.2912      1      2
    24   220.0000     1.0545    -0.2112      1      2
    25   220.0000     1.0566    -0.1854      1      2
    26   220.0000     1.0514    -0.3407      1      2
    27   220.0000     1.0659    -0.1789      1      2
    28   220.0000     1.0659    -0.1788      1      2
    29   220.0000     1.0967    -0.2677      1      2
    30   220.0000     1.0967    -0.2677      1      2
    31   400.0000     1.0214    -0.1873      1      2
    32   400.0000     1.0214    -0.1880      1      2
    33   220.0000     1.0603    -0.1921      1      2
    34   400.0000     1.0437    -0.1800      1      2
    35   400.0000     1.0438    -0.1802      1      2
    36   400.0000     1.0036    -0.2447      1      2
    37   220.0000     1.0618    -0.3081      1      2
    38   220.0000     1.0618    -0.3081      1      2
    39   400.0000     1.0154    -0.1648      1      2
    40   400.0000     1.0154    -0.1646      1      2
    41   220.0000     1.0609    -0.1483      1      2
    42   220.0000     1.0609    -0.1485      1      2
    43   400.0000     1.0229    -0.1207      1      2
    44   400.0000     1.0229    -0.1209      1      2
    45   220.0000     1.0792    -0.2843      1      2
    46   220.0000     1.0792    -0.2843      1      2
    47   220.0000     1.0601    -0.1901      1      2
    48   220.0000     1.0778    -0.2669      1      2
    49   220.0000     1.0778    -0.2670      1      2
    50   400.0000     1.0309    -0.1487      1      2
    51   400.0000     1.0309    -0.1490      1      2
    52   220.0000     1.0531    -0.2291      1      2
    53   220.0000     1.0551    -0.2270      1      2
    54   220.0000     1.0568    -0.1842      1      2
    55   220.0000     1.0667    -0.2915      1      2
    56   220.0000     1.0802    -0.0895      1      3
    57   220.0000     1.0788    -0.1272      1      3
    58   220.0000     1.0790    -0.1272      1      3
    59   220.0000     1.1054     0.0081      1      3
    60   220.0000     1.1034    -0.0672      1      3
    61   220.0000     1.1085     0.0365      1      3
    62   220.0000     1.1084     0.0366      1      3
    63   220.0000     1.1100     0.0142      1      3
    64   220.0000     1.1093     0.0113      1      3
    65   220.0000     1.1032    -0.0180      1      3
    66   220.0000     1.1003    -0.1507      1      3
    67   400.0000     1.0500    -0.1144      1      3
    68   220.0000     1.1002    -0.1205      1      3
    69   220.0000     1.1070    -0.0146      1      3
    70   220.0000     1.0849    -0.0751      1      3
    71   220.0000     1.0989    -0.0321      1      3
    72   220.0000     1.0989    -0.0321      1      3
    73   220.0000     1.0878    -0.0634      1      3
    74   220.0000     1.0849    -0.0788      1      3
    75   400.0000     1.0319    -0.0292      1      3
    76   400.0000     1.0319    -0.0293      1      3
    77   220.0000     1.0987    -0.0396      1      3
    78   220.0000     1.0966    -0.0868      1      3
    79   220.0000     1.0988    -0.0223      1      3
    80   220.0000     1.0795    -0.1263      1      3
    81   220.0000     1.0795    -0.1263      1      3
    82   220.0000     1.1039     0.0177      1      3
    83   220.0000     1.1090    -0.0143      1      3
    84   220.0000     1.1091    -0.0143      1      3
    85   220.0000     1.1017    -0.0400      1      3
    86   220.0000     1.1016    -0.0400      1      3
    87   220.0000     1.0894    -0.0549      1      3
    88   220.0000     1.0894    -0.0549      1      3
    89   220.0000     1.1001    -0.0216      1      3
    90   220.0000     1.1042    -0.0314      1      3
    91   220.0000     1.1026    -0.0116      1      3
    92   400.0000     1.0237    -0.0961      1      3
    93   220.0000     1.1056    -0.0052      1      3
    94   220.0000     1.1056    -0.0052      1      3
    95   220.0000     1.1075    -0.0079      1      3
    96   220.0000     1.1075    -0.0080      1      3
    97   220.0000     1.0967    -0.0846      1      3
    98   400.0000     1.0232    -0.1318      1      3
    99   400.0000     1.0233    -0.1317      1      3
   100   400.0000     1.0320    -0.0900      1      3
   101   400.0000     1.0320    -0.0899      1      3
   102   220.0000     1.1020    -0.0200      1      3
   103   220.0000     1.1067    -0.0334      1      3
   104   220.0000     1.1068    -0.0333      1      3
   105   400.0000     1.0167    -0.0853      1      3
   106   400.0000     1.0168    -0.0855      1      3
   107   220.0000     1.0836    -0.0801      1      3
   108   220.0000     1.0853    -0.0771      1      3
   109   220.0000     1.1100     0.0491      1      3
   110   220.0000     1.1100     0.0491      1      3
   111   220.0000     1.1066    -0.2503      1      4
   112   220.0000     1.1065    -0.2502      1      4
   113   220.0000     1.0622    -0.4691      1      4
   114   220.0000     1.0755    -0.4597      1      4
   115   400.0000     0.9834    -0.3541      1      4
   116   400.0000     0.9834    -0.3540      1      4
   117   220.0000     1.0727    -0.5238      1      4
   118   220.0000     1.0672    -0.6759      1      4
   119   220.0000     1.0672    -0.6759      1      4
   120   220.0000     1.0513    -0.6491      1      4
   121   220.0000     1.0700    -0.4698      1      4
   122   220.0000     1.0700    -0.4698      1      4
   123   220.0000     1.1097    -0.3386      1      4
   124   220.0000     1.1097    -0.3385      1      4
   125   220.0000     1.1062    -0.6209      1      4
   126   220.0000     1.1061    -0.6207      1      4
   127   400.0000     1.0330    -0.4845      1      4
   128   400.0000     1.0330    -0.4847      1      4
   129   220.0000     1.0452    -0.5686      1      4
   130   220.0000     1.0346    -0.5926      1      4
   131   220.0000     1.0993    -0.4203      1      4
   132   220.0000     1.0994    -0.4206      1      4
   133   400.0000     0.9953    -0.3423      1      4
   134   400.0000     0.9953    -0.3422      1      4
   135   220.0000     1.0672    -0.6746      1      4
   136   220.0000     1.0672    -0.6746      1      4
   137   400.0000     1.0000    -0.2906      1      4
   138   400.0000     1.0000    -0.2906      1      4
   139   220.0000     1.1100    -0.3437      1      4
   140   220.0000     1.1100    -0.3439      1      4
   141   220.0000     1.0487    -0.6163      1      4
   142   220.0000     1.0641    -0.6794      1      4
   143   220.0000     1.0713    -0.5498      1      4
   144   220.0000     1.0713    -0.5498      1      4
   145   400.0000     0.9766    -0.5442      1      4
   146   400.0000     0.9766    -0.5442      1      4
   147   220.0000     1.0443    -0.5341      1      4
   148   220.0000     1.0444    -0.5340      1      4
   149   220.0000     1.0679    -0.5619      1      4
   150   220.0000     1.0651    -0.4547      1      4
   151   220.0000     1.0651    -0.4548      1      4
   152   220.0000     1.0585    -0.3922      1      4
   153   220.0000     1.0585    -0.3922      1      4
   154   220.0000     1.0281    -0.5655      1      4
   155   220.0000     1.0547    -0.4857      1      5
   156   220.0000     1.1100    -0.5271      1      5
   157   400.0000     1.0250    -0.4940      1      5
   158   400.0000     1.0249    -0.4939      1      5
   159   400.0000     1.0282    -0.4390      1      5
   160   400.0000     1.0283    -0.4391      1      5
   161   220.0000     1.0552    -0.5427      1      5
   162   220.0000     1.0552    -0.5427      1      5
   163   220.0000     1.0871    -0.4994      1      5
   164   220.0000     1.0871    -0.4994      1      5
   165   400.0000     1.0015    -0.3946      1      5
   166   220.0000     1.0669    -0.4723      1      5
   167   220.0000     1.0670    -0.4723      1      5
   168   400.0000     1.0301    -0.4694      1      5
   169   400.0000     1.0301    -0.4695      1      5
   170   220.0000     1.0558    -0.4877      1      5
   171   220.0000     1.0559    -0.4876      1      5
   172   220.0000     1.0622    -0.5082      1      5
   173   220.0000     1.0622    -0.5082      1      5
   174   220.0000     1.0600    -0.4695      1      5
   175   220.0000     1.0599    -0.4697      1      5
   176   400.0000     1.0313    -0.4175      1      5
   177   400.0000     1.0315    -0.4174      1      5
   178   220.0000     1.0784    -0.5634      1      5
   179   220.0000     1.0785    -0.5633      1      5
   180   400.0000     1.0088    -0.1340      2      6
   181   220.0000     1.1072    -0.1716      3      6
   182   400.0000     0.9967    -0.3371      5      6
   183   400.0000     1.0500    -0.1963      3      6
   184   220.0000     1.0968    -0.0830      2      6
   185   400.0000     1.0080    -0.1477      2      6
   186   220.0000     1.1085    -0.6232      5      6
   187   110.0000     1.0661    -0.4485      1      1
   188   110.0000     1.0418    -0.5631      1      1
   189   110.0000     0.9972    -0.5151      1      1
   190   110.0000     1.1039    -0.0992      1      1
   191   110.0000     1.0850    -0.1202      1      1
   192   110.0000     1.1200    -0.3854      1      1
   193   110.0000     1.1189    -0.3832      1      1
   194   110.0000     1.1186    -0.3883      1      1
   195   110.0000     1.0831    -0.4666      1      1
   196   110.0000     1.0192    -0.5830      1      1
   197   110.0000     1.0731    -0.2688      1      1
   198   110.0000     1.0753    -0.4694      1      1
   199   110.0000     1.1078    -0.1443      1      1
   200   110.0000     1.0976    -0.4529      1      1
...
];

%SW data: 1
SW.con = [...
    18   100.0000   400.0000     1.0000     0.0000    15.4000    -1.4000     1.0500     0.9500     0.8753     1.0000      1      1
];

%PV data: 326
PV.con = [...
    10   100.0000   220.0000     4.0000     1.0000     1.2000     0.0000     1.1100     0.9500     1.0000      1
    16   100.0000   220.0000     7.2000     1.0000     4.4000    -0.4000     1.1100     0.9500     1.0000      1
    17   100.0000   220.0000    10.8000     1.0000     6.6000    -0.6000     1.1100     0.9500     1.0000      1
    29   100.0000   220.0000     0.7000     1.0000     2.4000     0.0000     1.1100     0.9500     1.0000      1
    30   100.0000   220.0000     0.7000     1.0000     2.4000     0.0000     1.1100     0.9500     1.0000      1
    31   100.0000   400.0000    10.0000     1.0000     3.5000     0.0000     1.0500     0.9500     1.0000      1
    41   100.0000   220.0000     2.0000     1.0000     1.2000     0.0000     1.1100     0.9500     1.0000      1
    42   100.0000   220.0000     0.7000     1.0000     1.2000     0.0000     1.1100     0.9500     1.0000      1
    43   100.0000   400.0000     4.1000     1.0000     2.4000     0.0000     1.0500     0.9500     1.0000      1
    44   100.0000   400.0000     4.1000     1.0000     2.4000     0.0000     1.0500     0.9500     1.0000      1
    45   100.0000   220.0000     0.4220     1.0000     0.2100     0.0000     1.1100     0.9500     1.0000      1
    63   100.0000   220.0000     6.5000     1.0000     3.0200     0.0000     1.1100     0.9500     1.0000      1
    64   100.0000   220.0000     4.5000     1.0000     3.1100     0.0200     1.1100     0.9500     1.0000      1
    67   100.0000   400.0000     7.5000     1.0000     4.4900     0.0000     1.0500     0.9500     1.0000      1
    83   100.0000   220.0000     2.2500     1.0000     1.9000    -0.8900     1.1100     0.9500     1.0000      1
    84   100.0000   220.0000     2.2500     1.0000     1.9000    -0.8900     1.1100     0.9500     1.0000      1
    85   100.0000   220.0000     1.2000     1.0000     1.2500    -0.5000     1.1100     0.9500     1.0000      1
    86   100.0000   220.0000     1.2000     1.0000     1.2500    -0.5000     1.1100     0.9500     1.0000      1
    93   100.0000   220.0000     1.2000     1.0000     0.9000     0.0500     1.1100     0.9500     1.0000      1
    95   100.0000   220.0000     1.1000     1.0000     0.6800     0.2700     1.1100     0.9500     1.0000      1
    97   100.0000   220.0000     0.8760     1.0000     0.6800     0.2700     1.1100     0.9500     1.0000      1
   103   100.0000   220.0000     1.6000     1.0000     1.7700    -0.8200     1.1100     0.9500     1.0000      1
   104   100.0000   220.0000     2.2500     1.0000     3.7900    -1.7700     1.1100     0.9500     1.0000      1
   105   100.0000   400.0000     4.3000     1.0000     3.5300    -1.6500     1.0500     0.9500     1.0000      1
   109   100.0000   220.0000     2.5000     1.0000     0.6500     0.0000     1.1100     0.9500     1.0000      1
   110   100.0000   220.0000     2.5000     1.0000     0.6500     0.0000     1.1100     0.9500     1.0000      1
   111   100.0000   220.0000     3.6000     1.0000     2.7000     0.0000     1.1100     0.9500     1.0000      1
   123   100.0000   220.0000     0.2000     1.0000     0.4000     0.0000     1.1100     0.9500     1.0000      1
   124   100.0000   220.0000     1.2500     1.0000     0.9000     0.0000     1.1100     0.9500     1.0000      1
   125   100.0000   220.0000     0.7000     1.0000     3.6000     0.0000     1.1100     0.9500     1.0000      1
   127   100.0000   400.0000     6.9000     1.0000     3.6000     0.0000     1.0500     0.9500     1.0000      1
   131   100.0000   220.0000     6.4538     1.0000     3.6000     0.0000     1.1100     0.9500     1.0000      1
   132   100.0000   220.0000     0.7000     1.0000     4.8000     0.0000     1.1100     0.9500     1.0000      1
   139   100.0000   220.0000     4.0867     1.0000     3.6000     0.0000     1.1100     0.9500     1.0000      1
   140   100.0000   220.0000     2.0000     1.0000     1.2000     0.0000     1.1100     0.9500     1.0000      1
   176   100.0000   400.0000     6.0000     1.0000     2.2000    -1.2000     1.0500     0.9500     1.0000      1
   177   100.0000   400.0000     2.0000     1.0000     2.2000    -1.2000     1.0500     0.9500     1.0000      1
   180   100.0000   400.0000     0.0000     1.0000        Inf       -Inf     1.0500     0.9500     1.0000      1
   181   100.0000   220.0000     1.7500     1.0000        Inf       -Inf     1.1100     0.9500     1.0000      1
   182   100.0000   400.0000     3.0759     1.0000        Inf       -Inf     1.0500     0.9500     1.0000      1
   184   100.0000   220.0000     0.0000     1.0000        Inf       -Inf     1.1100     0.9500     1.0000      1
   185   100.0000   400.0000     0.0000     1.0000        Inf       -Inf     1.0500     0.9500     1.0000      1
   186   100.0000   220.0000     0.0000     1.0000        Inf       -Inf     1.1100     0.9500     1.0000      1
   192   100.0000   110.0000     0.9500     1.0000     0.5000     0.0000     1.1200     0.9500     1.0000      1
   196   100.0000   110.0000     0.0090     1.0000     0.0100     0.0000     1.1200     0.9500     1.0000      1
   198   100.0000   110.0000     0.0080     1.0000     0.0100     0.0000     1.1200     0.9500     1.0000      1
   205   100.0000   110.0000     0.1500     1.0000     0.1000     0.0000     1.1200     0.9500     1.0000      1
   213   100.0000   110.0000     0.1100     1.0000     0.0800     0.0000     1.1200     0.9500     1.0000      1
   264   100.0000   110.0000     0.0250     1.0000     0.0200     0.0000     1.1200     0.9500     1.0000      1
   269   100.0000   110.0000     0.0600     1.0000     0.0500     0.0000     1.1200     0.9500     1.0000      1
   277   100.0000   110.0000     0.7000     1.0000     0.4200     0.0000     1.1200     0.9500     1.0000      1
   278   100.0000   110.0000     0.6000     1.0000     0.4000     0.0000     1.1200     0.9500     1.0000      1
   279   100.0000   110.0000     0.6000     1.0000     0.4000     0.0000     1.1200     0.9500     1.0000      1
   281   100.0000   110.0000     1.2000     1.0000     0.9000     0.0000     1.1200     0.9500     1.0000      1
   282   100.0000   110.0000     0.4000     1.0000     0.4000     0.0000     1.1200     0.9500     1.0000      1
   289   100.0000   110.0000     0.0250     1.0000     0.0300     0.0000     1.1200     0.9500     1.0000      1
   294   100.0000   110.0000     0.0200     1.0000     0.0100     0.0000     1.1200     0.9500     1.0000      1
   314   100.0000   110.0000     0.0150     1.0000     0.0100     0.0000     1.1200     0.9500     1.0000      1
   328   100.0000   110.0000     0.4400     1.0000     0.2100     0.0000     1.1200     0.9500     1.0000      1
   329   100.0000   110.0000     0.4400     1.0000     0.2100     0.0000     1.1200     0.9500     1.0000      1
   330   100.0000   110.0000     0.4400     1.0000     0.2100     0.0000     1.1200     0.9500     1.0000      1
   331   100.0000   110.0000     0.4300     1.0000     0.2100     0.0000     1.1200     0.9500     1.0000      1
   334   100.0000   110.0000     0.0150     1.0000     0.0100     0.0000     1.1200     0.9500     1.0000      1
   346   100.0000   110.0000     2.0000     1.0000     1.2000     0.0000     1.1200     0.9500     1.0000      1
   347   100.0000   110.0000     0.1000     1.0000     0.1500     0.0000     1.1200     0.9500     1.0000      1
   359   100.0000   110.0000     0.0150     1.0000     0.0100     0.0000     1.1200     0.9500     1.0000      1
   365   100.0000   110.0000     0.0510     1.0000     0.0300     0.0000     1.1200     0.9500     1.0000      1
   382   100.0000   110.0000     0.0800     1.0000     0.0500     0.0000     1.1200     0.9500     1.0000      1
   383   100.0000   110.0000     0.0800     1.0000     0.0500     0.0000     1.1200     0.9500     1.0000      1
   385   100.0000   110.0000     0.0600     1.0000     0.0400     0.0000     1.1200     0.9500     1.0000      1
   390   100.0000   110.0000     0.0450     1.0000     0.0300     0.0000     1.1200     0.9500     1.0000      1
   395   100.0000   110.0000     0.1000     1.0000     0.0800     0.0000     1.1200     0.9500     1.0000      1
   404   100.0000   110.0000     0.0300     1.0000     0.0300     0.0000     1.1200     0.9500     1.0000      1
   426   100.0000   110.0000     0.0320     1.0000     0.0200     0.0000     1.1200     0.9500     1.0000      1
   444   100.0000   110.0000     0.0100     1.0000     0.0100     0.0000     1.1200     0.9500     1.0000      1
   451   100.0000   110.0000     0.0450     1.0000     0.0300     0.0000     1.1200     0.9500     1.0000      1
   482   100.0000   110.0000     0.0100     1.0000     0.0100     0.0000     1.1200     0.9500     1.0000      1
   492   100.0000   110.0000     0.0200     1.0000     0.0100     0.0000     1.1200     0.9500     1.0000      1
   493   100.0000   110.0000     2.3400     1.0000     1.3000     0.0000     1.1200     0.9500     1.0000      1
   494   100.0000   110.0000     2.3400     1.0000     1.3000     0.0000     1.1200     0.9500     1.0000      1
   514   100.0000   110.0000     1.1500     1.0000     0.9000     0.0000     1.1200     0.9500     1.0000      1
   515   100.0000   110.0000     1.1500     1.0000     0.9000     0.0000     1.1200     0.9500     1.0000      1
   525   100.0000   110.0000     0.0600     1.0000     0.0400     0.0000     1.1200     0.9500     1.0000      1
   536   100.0000   110.0000     0.0600     1.0000     0.0600     0.0000     1.1200     0.9500     1.0000      1
   537   100.0000   110.0000     0.0350     1.0000     0.0300     0.0000     1.1200     0.9500     1.0000      1
   556   100.0000   110.0000     0.0270     1.0000     0.0100     0.0000     1.1200     0.9500     1.0000      1
   580   100.0000   110.0000     0.0160     1.0000     0.0100     0.0000     1.1200     0.9500     1.0000      1
   584   100.0000   110.0000     0.0270     1.0000     0.0200     0.0000     1.1200     0.9500     1.0000      1
   585   100.0000   110.0000     0.0400     1.0000     0.0200     0.0000     1.1200     0.9500     1.0000      1
   607   100.0000   110.0000     0.0080     1.0000     0.0000     0.0000     1.1200     0.9500     1.0000      1
   612   100.0000   110.0000     1.5295     1.0000     1.2000     0.0000     1.1200     0.9500     1.0000      1
   613   100.0000   110.0000     2.0000     1.0000     1.2000     0.0000     1.1200     0.9500     1.0000      1
   615   100.0000   110.0000     0.0140     1.0000     0.0100     0.0000     1.1200     0.9500     1.0000      1
   623   100.0000   110.0000     0.0760     1.0000     0.0500     0.0000     1.1200     0.9500     1.0000      1
   639   100.0000   110.0000     0.0960     1.0000     0.0400     0.0000     1.1200     0.9500     1.0000      1
   651   100.0000   110.0000     0.0470     1.0000     0.0200     0.0000     1.1200     0.9500     1.0000      1
   654   100.0000   110.0000     0.0140     1.0000     0.0100     0.0000     1.1200     0.9500     1.0000      1
   664   100.0000   110.0000     0.0620     1.0000     0.0600     0.0000     1.1200     0.9500     1.0000      1
   670   100.0000   110.0000     0.0270     1.0000     0.0200     0.0000     1.1200     0.9500     1.0000      1
   674   100.0000   110.0000     0.0100     1.0000     0.0000     0.0000     1.1200     0.9500     1.0000      1
   688   100.0000   110.0000     0.7000     1.0000     1.2000     0.0000     1.1200     0.9500     1.0000      1
   692   100.0000   110.0000     0.0140     1.0000     0.0100     0.0000     1.1200     0.9500     1.0000      1
   699   100.0000   110.0000     0.0380     1.0000     0.0200     0.0000     1.1200     0.9500     1.0000      1
   712   100.0000   110.0000     0.0120     1.0000     0.0100     0.0000     1.1200     0.9500     1.0000      1
   730   100.0000   110.0000     0.0690     1.0000     0.0300     0.0000     1.1200     0.9500     1.0000      1
   732   100.0000   110.0000     0.0110     1.0000     0.0100     0.0000     1.1200     0.9500     1.0000      1
   735   100.0000   110.0000     0.0410     1.0000     0.0200     0.0000     1.1200     0.9500     1.0000      1
   740   100.0000   110.0000     0.0400     1.0000     0.0100     0.0000     1.1200     0.9500     1.0000      1
   744   100.0000   110.0000     1.3400     1.0000     0.6000     0.0000     1.1200     0.9500     1.0000      1
   754   100.0000   110.0000     0.8000     1.0000     0.3000     0.0000     1.1200     0.9500     1.0000      1
   755   100.0000   110.0000     0.8500     1.0000     0.8000     0.0000     1.1200     0.9500     1.0000      1
   760   100.0000   110.0000     0.0310     1.0000     0.0200     0.0000     1.1200     0.9500     1.0000      1
   766   100.0000   110.0000     0.0210     1.0000     0.0100     0.0000     1.1200     0.9500     1.0000      1
   784   100.0000   110.0000     0.0070     1.0000     0.0000     0.0000     1.1200     0.9500     1.0000      1
   790   100.0000   110.0000     0.4980     1.0000     0.3500     0.3500     1.1200     0.9500     1.0000      1
   795   100.0000   110.0000     0.0189     1.0000     0.0100     0.0100     1.1200     0.9500     1.0000      1
   798   100.0000   110.0000     0.0299     1.0000     0.0300     0.0300     1.1200     0.9500     1.0000      1
   814   100.0000   110.0000     0.4492     1.0000     0.4200     0.0000     1.1200     0.9500     1.0000      1
   834   100.0000   110.0000     0.5500     1.0000     0.8300     0.0000     1.1200     0.9500     1.0000      1
   878   100.0000   110.0000     0.0299     1.0000     0.0000     0.0000     1.1200     0.9500     1.0000      1
   884   100.0000   110.0000     0.0249     1.0000     0.0000     0.0000     1.1200     0.9500     1.0000      1
   892   100.0000   110.0000     0.3187     1.0000     0.4200     0.0600     1.1200     0.9500     1.0000      1
   895   100.0000   110.0000     0.0896     1.0000     0.0700     0.0700     1.1200     0.9500     1.0000      1
   901   100.0000   110.0000     0.0368     1.0000     0.0200     0.0200     1.1200     0.9500     1.0000      1
   910   100.0000   110.0000     0.0458     1.0000     0.0300     0.0300     1.1200     0.9500     1.0000      1
   911   100.0000   110.0000     3.7000     1.0000     2.2400     0.0000     1.1200     0.9500     1.0000      1
   912   100.0000   110.0000     3.7000     1.0000     2.2400     0.0000     1.1200     0.9500     1.0000      1
   914   100.0000   110.0000     0.1593     1.0000     0.1000     0.1000     1.1200     0.9500     1.0000      1
   917   100.0000   110.0000     0.0209     1.0000     0.0000     0.0000     1.1200     0.9500     1.0000      1
   919   100.0000   110.0000     0.2191     1.0000     0.1200     0.1200     1.1200     0.9500     1.0000      1
   920   100.0000   110.0000     0.0199     1.0000     0.0000     0.0000     1.1200     0.9500     1.0000      1
   929   100.0000   110.0000     0.6373     1.0000     0.5000     0.2900     1.1200     0.9500     1.0000      1
   959   100.0000   110.0000     0.0249     1.0000     0.0100     0.0100     1.1200     0.9500     1.0000      1
   968   100.0000   110.0000     0.0070     1.0000     0.0000     0.0000     1.1200     0.9500     1.0000      1
   993   100.0000   110.0000     0.0398     1.0000     0.0100     0.0100     1.1200     0.9500     1.0000      1
   994   100.0000   110.0000     0.0199     1.0000     0.0100     0.0100     1.1200     0.9500     1.0000      1
   995   100.0000   110.0000     0.2000     1.0000     0.3800     0.0000     1.1200     0.9500     1.0000      1
   996   100.0000   110.0000     0.2000     1.0000     0.3800     0.0000     1.1200     0.9500     1.0000      1
   997   100.0000   110.0000     0.2000     1.0000     0.3800     0.0000     1.1200     0.9500     1.0000      1
  1004   100.0000   110.0000     0.0428     1.0000     0.0300     0.0300     1.1200     0.9500     1.0000      1
  1024   100.0000   110.0000     0.0010     1.0000     0.0000     0.0000     1.1200     0.9500     1.0000      1
  1027   100.0000   110.0000     0.2490     1.0000     0.1300     0.1300     1.1200     0.9500     1.0000      1
  1028   100.0000   110.0000     0.0299     1.0000     0.0300     0.0300     1.1200     0.9500     1.0000      1
  1029   100.0000   110.0000     0.2490     1.0000     0.1400     0.1400     1.1200     0.9500     1.0000      1
  1053   100.0000   110.0000     0.5976     1.0000     0.5300     0.0000     1.1200     0.9500     1.0000      1
  1054   100.0000   110.0000     0.2988     1.0000     0.3100     0.0000     1.1200     0.9500     1.0000      1
  1105   100.0000   110.0000     0.0797     1.0000     0.1000     0.1000     1.1200     0.9500     1.0000      1
  1106   100.0000   110.0000     0.2291     1.0000     0.1300     0.1300     1.1200     0.9500     1.0000      1
  1107   100.0000   110.0000     0.1056     1.0000     0.0300     0.0300     1.1200     0.9500     1.0000      1
  1138   100.0000   110.0000     0.4482     1.0000     0.4100     0.0000     1.1200     0.9500     1.0000      1
  1140   100.0000   110.0000     2.3000     1.0000     1.9900    -0.8700     1.1200     0.9500     1.0000      1
  1141   100.0000   110.0000     0.9492     1.0000     1.9000    -0.8900     1.1200     0.9500     1.0000      1
  1175   100.0000   110.0000     0.3784     1.0000     0.2000     0.2000     1.1200     0.9500     1.0000      1
  1182   100.0000   110.0000     0.4000     1.0000     1.2500    -0.5000     1.1200     0.9500     1.0000      1
  1183   100.0000   110.0000     1.2000     1.0000     1.2500    -0.5000     1.1200     0.9500     1.0000      1
  1184   100.0000   110.0000     1.2000     1.0000     1.2500    -0.5000     1.1200     0.9500     1.0000      1
  1191   100.0000   110.0000     1.0656     1.0000     1.2900    -0.4700     1.1200     0.9500     1.0000      1
  1192   100.0000   110.0000     2.5000     1.0000     1.2500    -0.5000     1.1200     0.9500     1.0000      1
  1201   100.0000   110.0000     0.9959     1.0000     0.9000     0.0000     1.1200     0.9500     1.0000      1
  1202   100.0000   110.0000     0.9959     1.0000     0.9000     0.0000     1.1200     0.9500     1.0000      1
  1203   100.0000   110.0000     0.9959     1.0000     0.9000     0.0000     1.1200     0.9500     1.0000      1
  1232   100.0000   110.0000     0.5179     1.0000     0.4100     0.0000     1.1200     0.9500     1.0000      1
  1233   100.0000   110.0000     0.1494     1.0000     0.4100     0.0000     1.1200     0.9500     1.0000      1
  1244   100.0000   110.0000     0.1892     1.0000     0.2000     0.2000     1.1200     0.9500     1.0000      1
  1247   100.0000   110.0000     0.1593     1.0000     0.1200     0.1200     1.1200     0.9500     1.0000      1
  1250   100.0000   110.0000     1.9719     1.0000     1.5100     0.0000     1.1200     0.9500     1.0000      1
  1268   100.0000   110.0000     0.0050     1.0000     0.0000     0.0000     1.1200     0.9500     1.0000      1
  1316   100.0000   110.0000     0.0100     1.0000     0.0000     0.0000     1.1200     0.9500     1.0000      1
  1325   100.0000   110.0000     0.0139     1.0000     0.0000     0.0000     1.1200     0.9500     1.0000      1
  1349   100.0000   110.0000     0.0149     1.0000     0.0000     0.0000     1.1200     0.9500     1.0000      1
  1356   100.0000   110.0000     0.0100     1.0000     0.0200     0.0200     1.1200     0.9500     1.0000      1
  1359   100.0000   110.0000     0.0080     1.0000     0.0100     0.0100     1.1200     0.9500     1.0000      1
  1393   100.0000   110.0000     0.1275     1.0000     0.1100     0.0000     1.1200     0.9500     1.0000      1
  1403   100.0000   110.0000     0.0428     1.0000     0.0100     0.0100     1.1200     0.9500     1.0000      1
  1416   100.0000   110.0000     3.7100     1.0000     1.8000     0.1000     1.1200     0.9500     1.0000      1
  1417   100.0000   110.0000     1.2000     1.0000     1.2000     0.0500     1.1200     0.9500     1.0000      1
  1418   100.0000   110.0000     0.2000     1.0000     0.9000     0.0500     1.1200     0.9500     1.0000      1
  1426   100.0000   110.0000     4.9500     1.0000     0.6800     0.2700     1.1200     0.9500     1.0000      1
  1429   100.0000   110.0000     0.0020     1.0000     0.0000     0.0000     1.1200     0.9500     1.0000      1
  1469   100.0000   110.0000     0.0060     1.0000     0.0000     0.0000     1.1200     0.9500     1.0000      1
  1475   100.0000   110.0000     0.0209     1.0000     0.0200     0.0200     1.1200     0.9500     1.0000      1
  1504   100.0000   110.0000     0.3117     1.0000     0.0200     0.0200     1.1200     0.9500     1.0000      1
  1505   100.0000   110.0000     0.4880     1.0000     0.0400     0.0400     1.1200     0.9500     1.0000      1
  1514   100.0000   110.0000     0.0229     1.0000     0.0100     0.0100     1.1200     0.9500     1.0000      1
  1534   100.0000   110.0000     0.0030     1.0000     0.0000     0.0000     1.1200     0.9500     1.0000      1
  1536   100.0000   110.0000     1.6000     1.0000     1.9000    -0.8900     1.1200     0.9500     1.0000      1
  1537   100.0000   110.0000     2.2500     1.0000     2.0300    -0.9500     1.1200     0.9500     1.0000      1
  1538   100.0000   110.0000     2.1500     1.0000     1.9000    -0.8900     1.1200     0.9500     1.0000      1
  1542   100.0000   110.0000     0.0896     1.0000     0.0300     0.0300     1.1200     0.9500     1.0000      1
  1543   100.0000   110.0000     0.0120     1.0000     0.0000     0.0000     1.1200     0.9500     1.0000      1
  1550   100.0000   110.0000     0.0179     1.0000     0.0100     0.0100     1.1200     0.9500     1.0000      1
  1566   100.0000   110.0000     0.5477     1.0000     0.4700     0.2000     1.1200     0.9500     1.0000      1
  1587   100.0000   110.0000     0.6374     1.0000     0.2700     0.2700     1.1200     0.9500     1.0000      1
  1600   100.0000   110.0000     0.1743     1.0000     0.0300     0.0300     1.1200     0.9500     1.0000      1
  1602   100.0000   110.0000     1.2000     1.0000     0.9000     0.0000     1.1200     0.9500     1.0000      1
  1603   100.0000   110.0000     1.2000     1.0000     0.9000     0.0000     1.1200     0.9500     1.0000      1
  1609   100.0000   110.0000     0.0030     1.0000     0.0000     0.0000     1.1200     0.9500     1.0000      1
  1617   100.0000   110.0000     0.0200     1.0000     0.0000     0.0000     1.1200     0.9500     1.0000      1
  1620   100.0000   110.0000     0.0160     1.0000     0.0000     0.0000     1.1200     0.9500     1.0000      1
  1627   100.0000   110.0000     0.0160     1.0000     0.0000     0.0000     1.1200     0.9500     1.0000      1
...
];

%PQ data: 2378
PQ.con = [...
    10   100.0000   220.0000     0.0000     0.0000     1.1100     0.9500      0      1
    16   100.0000   220.0000     0.0000     0.0000     1.1100     0.9500      0      1
    17   100.0000   220.0000     0.0000     0.0000     1.1100     0.9500      0      1
    18   100.0000   400.0000     0.0000     0.0000     1.0500     0.9500      0      1
    29   100.0000   220.0000     0.0000     0.0000     1.1100     0.9500      0      1
    30   100.0000   220.0000     0.0000     0.0000     1.1100     0.9500      0      1
    31   100.0000   400.0000     0.0000     0.0000     1.0500     0.9500      0      1
    41   100.0000   220.0000     0.0000     0.0000     1.1100     0.9500      0      1
    42   100.0000   220.0000     0.0000     0.0000     1.1100     0.9500      0      1
    43   100.0000   400.0000     0.0000     0.0000     1.0500     0.9500      0      1
    44   100.0000   400.0000     0.0000     0.0000     1.0500     0.9500      0      1
    45   100.0000   220.0000     0.0000     0.0000     1.1100     0.9500      0      1
    57   100.0000   220.0000     0.0000     0.0000     1.1100     0.9500      0      1
    58   100.0000   220.0000     0.0000     0.0000     1.1100     0.9500      0      1
    63   100.0000   220.0000     0.0000     0.0000     1.1100     0.9500      0      1
    64   100.0000   220.0000     0.0000     0.0000     1.1100     0.9500      0      1
    65   100.0000   220.0000     0.0000     0.0000     1.1100     0.9500      0      1
    67   100.0000   400.0000     0.0000     0.0000     1.0500     0.9500      0      1
    83   100.0000   220.0000     0.0000     0.0000     1.1100     0.9500      0      1
    84   100.0000   220.0000     0.0000     0.0000     1.1100     0.9500      0      1
    85   100.0000   220.0000     0.0000     0.0000     1.1100     0.9500      0      1
    86   100.0000   220.0000     0.0000     0.0000     1.1100     0.9500      0      1
    87   100.0000   220.0000     0.0000     0.0000     1.1100     0.9500      0      1
    93   100.0000   220.0000     0.0000     0.0000     1.1100     0.9500      0      1
    95   100.0000   220.0000     0.0000     0.0000     1.1100     0.9500      0      1
    97   100.0000   220.0000     0.0000     0.0000     1.1100     0.9500      0      1
   103   100.0000   220.0000     0.0000     0.0000     1.1100     0.9500      0      1
   104   100.0000   220.0000     0.0000     0.0000     1.1100     0.9500      0      1
   105   100.0000   400.0000     0.0000     0.0000     1.0500     0.9500      0      1
   109   100.0000   220.0000     0.0000     0.0000     1.1100     0.9500      0      1
   110   100.0000   220.0000     0.0000     0.0000     1.1100     0.9500      0      1
   111   100.0000   220.0000     0.0000     0.0000     1.1100     0.9500      0      1
   123   100.0000   220.0000     0.0000     0.0000     1.1100     0.9500      0      1
   124   100.0000   220.0000     0.0000     0.0000     1.1100     0.9500      0      1
   125   100.0000   220.0000     0.0000     0.0000     1.1100     0.9500      0      1
   126   100.0000   220.0000     0.0000     0.0000     1.1100     0.9500      0      1
   127   100.0000   400.0000     0.0000     0.0000     1.0500     0.9500      0      1
   131   100.0000   220.0000     0.0000     0.0000     1.1100     0.9500      0      1
   132   100.0000   220.0000     0.0000     0.0000     1.1100     0.9500      0      1
   139   100.0000   220.0000     0.0000     0.0000     1.1100     0.9500      0      1
   140   100.0000   220.0000     0.0000     0.0000     1.1100     0.9500      0      1
   176   100.0000   400.0000     0.0000     0.0000     1.0500     0.9500      0      1
   177   100.0000   400.0000     0.0000     0.0000     1.0500     0.9500      0      1
   180   100.0000   400.0000     0.0000     0.0000     1.0500     0.9500      0      1
   183   100.0000   400.0000     0.0000     0.0000     1.0500     0.9500      0      1
   184   100.0000   220.0000     0.0000     0.0000     1.1100     0.9500      0      1
   185   100.0000   400.0000     0.0000     0.0000     1.0500     0.9500      0      1
   186   100.0000   220.0000     0.0000     0.0000     1.1100     0.9500      0      1
   187   100.0000   110.0000     0.0000     0.0000     1.1200     0.9500      0      1
   188   100.0000   110.0000     0.0000     0.0000     1.1200     0.9500      0      1
   189   100.0000   110.0000     0.0000     0.0000     1.1200     0.9500      0      1
   190   100.0000   110.0000     0.0000     0.0000     1.1200     0.9500      0      1
   191   100.0000   110.0000     0.0000     0.0000     1.1200     0.9500      0      1
   192   100.0000   110.0000     0.0000     0.0000     1.1200     0.9500      0      1
   193   100.0000   110.0000     0.0000     0.0000     1.1200     0.9500      0      1
   195   100.0000   110.0000     0.0000     0.0000     1.1200     0.9500      0      1
   196   100.0000   110.0000     0.0000     0.0000     1.1200     0.9500      0      1
   197   100.0000   110.0000     0.0000     0.0000     1.1200     0.9500      0      1
   198   100.0000   110.0000     0.0000     0.0000     1.1200     0.9500      0      1
   199   100.0000   110.0000     0.0000     0.0000     1.1200     0.9500      0      1
   200   100.0000   110.0000     0.0000     0.0000     1.1200     0.9500      0      1
   201   100.0000   110.0000     0.0000     0.0000     1.1200     0.9500      0      1
   202   100.0000   110.0000     0.0000     0.0000     1.1200     0.9500      0      1
   203   100.0000   110.0000     0.0000     0.0000     1.1200     0.9500      0      1
   205   100.0000   110.0000     0.0000     0.0000     1.1200     0.9500      0      1
   206   100.0000   110.0000     0.0000     0.0000     1.1200     0.9500      0      1
   207   100.0000   110.0000     0.0000     0.0000     1.1200     0.9500      0      1
   208   100.0000   110.0000     0.0000     0.0000     1.1200     0.9500      0      1
   209   100.0000   110.0000     0.0000     0.0000     1.1200     0.9500      0      1
   210   100.0000   110.0000     0.0000     0.0000     1.1200     0.9500      0      1
   211   100.0000   110.0000     0.0000     0.0000     1.1200     0.9500      0      1
   212   100.0000   110.0000     0.0000     0.0000     1.1200     0.9500      0      1
   213   100.0000   110.0000     0.0000     0.0000     1.1200     0.9500      0      1
   214   100.0000   110.0000     0.0000     0.0000     1.1200     0.9500      0      1
   215   100.0000   110.0000     0.0000     0.0000     1.1200     0.9500      0      1
   216   100.0000   110.0000     0.0000     0.0000     1.1200     0.9500      0      1
   217   100.0000   110.0000     0.0000     0.0000     1.1200     0.9500      0      1
   218   100.0000   110.0000     0.0000     0.0000     1.1200     0.9500      0      1
   219   100.0000   110.0000     0.0000     0.0000     1.1200     0.9500      0      1
   220   100.0000   110.0000     0.0000     0.0000     1.1200     0.9500      0      1
   221   100.0000   110.0000     0.0000     0.0000     1.1200     0.9500      0      1
   222   100.0000   110.0000     0.0000     0.0000     1.1200     0.9500      0      1
   223   100.0000   110.0000     0.0000     0.0000     1.1200     0.9500      0      1
   224   100.0000   110.0000     0.0000     0.0000     1.1200     0.9500      0      1
   225   100.0000   110.0000     0.0000     0.0000     1.1200     0.9500      0      1
   226   100.0000   110.0000     0.0000     0.0000     1.1200     0.9500      0      1
   227   100.0000   110.0000     0.0000     0.0000     1.1200     0.9500      0      1
   228   100.0000   110.0000     0.0000     0.0000     1.1200     0.9500      0      1
   229   100.0000   110.0000     0.0000     0.0000     1.1200     0.9500      0      1
   230   100.0000   110.0000     0.0000     0.0000     1.1200     0.9500      0      1
   231   100.0000   110.0000     0.0000     0.0000     1.1200     0.9500      0      1
   232   100.0000   110.0000     0.0000     0.0000     1.1200     0.9500      0      1
   233   100.0000   110.0000     0.0000     0.0000     1.1200     0.9500      0      1
   234   100.0000   110.0000     0.0000     0.0000     1.1200     0.9500      0      1
   235   100.0000   110.0000     0.0000     0.0000     1.1200     0.9500      0      1
   236   100.0000   110.0000     0.0000     0.0000     1.1200     0.9500      0      1
   237   100.0000   110.0000     0.0000     0.0000     1.1200     0.9500      0      1
   238   100.0000   110.0000     0.0000     0.0000     1.1200     0.9500      0      1
   239   100.0000   110.0000     0.0000     0.0000     1.1200     0.9500      0      1
   240   100.0000   110.0000     0.0000     0.0000     1.1200     0.9500      0      1
   241   100.0000   110.0000     0.0000     0.0000     1.1200     0.9500      0      1
   242   100.0000   110.0000     0.0000     0.0000     1.1200     0.9500      0      1
   244   100.0000   110.0000     0.0000     0.0000     1.1200     0.9500      0      1
   245   100.0000   110.0000     0.0000     0.0000     1.1200     0.9500      0      1
   246   100.0000   110.0000     0.0000     0.0000     1.1200     0.9500      0      1
   247   100.0000   110.0000     0.0000     0.0000     1.1200     0.9500      0      1
   248   100.0000   110.0000     0.0000     0.0000     1.1200     0.9500      0      1
   249   100.0000   110.0000     0.0000     0.0000     1.1200     0.9500      0      1
   250   100.0000   110.0000     0.0000     0.0000     1.1200     0.9500      0      1
   251   100.0000   110.0000     0.0000     0.0000     1.1200     0.9500      0      1
   252   100.0000   110.0000     0.0000     0.0000     1.1200     0.9500      0      1
   253   100.0000   110.0000     0.0000     0.0000     1.1200     0.9500      0      1
   254   100.0000   110.0000     0.0000     0.0000     1.1200     0.9500      0      1
   255   100.0000   110.0000     0.0000     0.0000     1.1200     0.9500      0      1
   256   100.0000   110.0000     0.0000     0.0000     1.1200     0.9500      0      1
   257   100.0000   110.0000     0.0000     0.0000     1.1200     0.9500      0      1
   258   100.0000   110.0000     0.0000     0.0000     1.1200     0.9500      0      1
   259   100.0000   110.0000     0.0000     0.0000     1.1200     0.9500      0      1
   260   100.0000   110.0000     0.0000     0.0000     1.1200     0.9500      0      1
   261   100.0000   110.0000     0.0000     0.0000     1.1200     0.9500      0      1
   262   100.0000   110.0000     0.0000     0.0000     1.1200     0.9500      0      1
   263   100.0000   110.0000     0.0000     0.0000     1.1200     0.9500      0      1
   264   100.0000   110.0000     0.0000     0.0000     1.1200     0.9500      0      1
   265   100.0000   110.0000     0.0000     0.0000     1.1200     0.9500      0      1
   266   100.0000   110.0000     0.0000     0.0000     1.1200     0.9500      0      1
   267   100.0000   110.0000     0.0000     0.0000     1.1200     0.9500      0      1
   268   100.0000   110.0000     0.0000     0.0000     1.1200     0.9500      0      1
   269   100.0000   110.0000     0.0000     0.0000     1.1200     0.9500      0      1
   270   100.0000   110.0000     0.0000     0.0000     1.1200     0.9500      0      1
   271   100.0000   110.0000     0.0000     0.0000     1.1200     0.9500      0      1
   272   100.0000   110.0000     0.0000     0.0000     1.1200     0.9500      0      1
   273   100.0000   110.0000     0.0000     0.0000     1.1200     0.9500      0      1
   274   100.0000   110.0000     0.0000     0.0000     1.1200     0.9500      0      1
   275   100.0000   110.0000     0.0000     0.0000     1.1200     0.9500      0      1
   276   100.0000   110.0000     0.0000     0.0000     1.1200     0.9500      0      1
   277   100.0000   110.0000     0.0000     0.0000     1.1200     0.9500      0      1
   278   100.0000   110.0000     0.0000     0.0000     1.1200     0.9500      0      1
   279   100.0000   110.0000     0.0000     0.0000     1.1200     0.9500      0      1
   281   100.0000   110.0000     0.0000     0.0000     1.1200     0.9500      0      1
   282   100.0000   110.0000     0.0000     0.0000     1.1200     0.9500      0      1
   283   100.0000   110.0000     0.0000     0.0000     1.1200     0.9500      0      1
   284   100.0000   110.0000     0.0000     0.0000     1.1200     0.9500      0      1
   285   100.0000   110.0000     0.0000     0.0000     1.1200     0.9500      0      1
   286   100.0000   110.0000     0.0000     0.0000     1.1200     0.9500      0      1
   287   100.0000   110.0000     0.0000     0.0000     1.1200     0.9500      0      1
   288   100.0000   110.0000     0.0000     0.0000     1.1200     0.9500      0      1
   289   100.0000   110.0000     0.0000     0.0000     1.1200     0.9500      0      1
   290   100.0000   110.0000     0.0000     0.0000     1.1200     0.9500      0      1
   291   100.0000   110.0000     0.0000     0.0000     1.1200     0.9500      0      1
   292   100.0000   110.0000     0.0000     0.0000     1.1200     0.9500      0      1
   293   100.0000   110.0000     0.0000     0.0000     1.1200     0.9500      0      1
   294   100.0000   110.0000     0.0000     0.0000     1.1200     0.9500      0      1
   295   100.0000   110.0000     0.0000     0.0000     1.1200     0.9500      0      1
   296   100.0000   110.0000     0.0000     0.0000     1.1200     0.9500      0      1
   297   100.0000   110.0000     0.0000     0.0000     1.1200     0.9500      0      1
   298   100.0000   110.0000     0.0000     0.0000     1.1200     0.9500      0      1
   299   100.0000   110.0000     0.0000     0.0000     1.1200     0.9500      0      1
   300   100.0000   110.0000     0.0000     0.0000     1.1200     0.9500      0      1
   301   100.0000   110.0000     0.0000     0.0000     1.1200     0.9500      0      1
   302   100.0000   110.0000     0.0000     0.0000     1.1200     0.9500      0      1
   303   100.0000   110.0000     0.0000     0.0000     1.1200     0.9500      0      1
   304   100.0000   110.0000     0.0000     0.0000     1.1200     0.9500      0      1
   305   100.0000   110.0000     0.0000     0.0000     1.1200     0.9500      0      1
   306   100.0000   110.0000     0.0000     0.0000     1.1200     0.9500      0      1
   307   100.0000   110.0000     0.0000     0.0000     1.1200     0.9500      0      1
   308   100.0000   110.0000     0.0000     0.0000     1.1200     0.9500      0      1
   311   100.0000   110.0000     0.0000     0.0000     1.1200     0.9500      0      1
   313   100.0000   110.0000     0.0000     0.0000     1.1200     0.9500      0      1
   314   100.0000   110.0000     0.0000     0.0000     1.1200     0.9500      0      1
   315   100.0000   110.0000     0.0000     0.0000     1.1200     0.9500      0      1
   316   100.0000   110.0000     0.0000     0.0000     1.1200     0.9500      0      1
   317   100.0000   110.0000     0.0000     0.0000     1.1200     0.9500      0      1
   318   100.0000   110.0000     0.0000     0.0000     1.1200     0.9500      0      1
   319   100.0000   110.0000     0.0000     0.0000     1.1200     0.9500      0      1
   320   100.0000   110.0000     0.0000     0.0000     1.1200     0.9500      0      1
   323   100.0000   110.0000     0.0000     0.0000     1.1200     0.9500      0      1
   324   100.0000   110.0000     0.0000     0.0000     1.1200     0.9500      0      1
   325   100.0000   110.0000     0.0000     0.0000     1.1200     0.9500      0      1
   326   100.0000   110.0000     0.0000     0.0000     1.1200     0.9500      0      1
   327   100.0000   110.0000     0.0000     0.0000     1.1200     0.9500      0      1
   328   100.0000   110.0000     0.0000     0.0000     1.1200     0.9500      0      1
   329   100.0000   110.0000     0.0000     0.0000     1.1200     0.9500      0      1
   330   100.0000   110.0000     0.0000     0.0000     1.1200     0.9500      0      1
   331   100.0000   110.0000     0.0000     0.0000     1.1200     0.9500      0      1
   333   100.0000   110.0000     0.0000     0.0000     1.1200     0.9500      0      1
   334   100.0000   110.0000     0.0000     0.0000     1.1200     0.9500      0      1
   335   100.0000   110.0000     0.0000     0.0000     1.1200     0.9500      0      1
   337   100.0000   110.0000     0.0000     0.0000     1.1200     0.9500      0      1
   338   100.0000   110.0000     0.0000     0.0000     1.1200     0.9500      0      1
   339   100.0000   110.0000     0.0000     0.0000     1.1200     0.9500      0      1
   340   100.0000   110.0000     0.0000     0.0000     1.1200     0.9500      0      1
   341   100.0000   110.0000     0.0000     0.0000     1.1200     0.9500      0      1
   342   100.0000   110.0000     0.0000     0.0000     1.1200     0.9500      0      1
   343   100.0000   110.0000     0.0000     0.0000     1.1200     0.9500      0      1
   344   100.0000   110.0000     0.0000     0.0000     1.1200     0.9500      0      1
   345   100.0000   110.0000     0.0000     0.0000     1.1200     0.9500      0      1
   346   100.0000   110.0000     0.0000     0.0000     1.1200     0.9500      0      1
   347   100.0000   110.0000     0.0000     0.0000     1.1200     0.9500      0      1
   348   100.0000   110.0000     0.0000     0.0000     1.1200     0.9500      0      1
   349   100.0000   110.0000     0.0000     0.0000     1.1200     0.9500      0      1
...
];

%Shunt data: 0
Shunt.con = [...
];

%Line Data: 2896
Line.con = [...
    16      1 100.00000 220.00000  60.00000      0   0.00000   0.00155   0.01169   0.01820   0.00000   0.00000   1.60000   1.60000   1.60000   1.00000 
   355      1 100.00000 110.00000  60.00000      0   0.50000   0.00157   0.06612   0.00000   1.00990   0.00000   1.60000   1.60000   1.60000   1.00000 
    17      2 100.00000 220.00000  60.00000      0   0.00000   0.00155   0.01169   0.01820   0.00000   0.00000   1.60000   1.60000   1.60000   1.00000 
   354      2 100.00000 110.00000  60.00000      0   0.50000   0.00157   0.06612   0.00000   1.02200   0.00000   1.60000   1.60000   1.60000   1.00000 
    10      3 100.00000 220.00000  60.00000      0   0.00000   0.01068   0.07895   0.12260   0.00000   0.00000   2.74000   2.74000   2.74000   1.00000 
   219      3 100.00000 110.00000  60.00000      0   0.50000   0.00165   0.06736   0.00000   1.02700   0.00000   1.60000   1.60000   1.60000   1.00000 
   220      3 100.00000 110.00000  60.00000      0   0.50000   0.00165   0.06736   0.00000   0.99550   0.00000   1.60000   1.60000   1.60000   1.00000 
     7      4 100.00000 220.00000  60.00000      0   0.00000   0.01674   0.09711   0.14423   0.00000   0.00000   3.77000   3.77000   3.77000   1.00000 
    11      4 100.00000 220.00000  60.00000      0   0.00000   0.00293   0.01599   0.02478   0.00000   0.00000   3.35000   3.35000   3.35000   1.00000 
    14      4 100.00000 220.00000  60.00000      0   0.00000   0.00442   0.03223   0.04985   0.00000   0.00000   4.64000   4.64000   4.64000   1.00000 
    16      4 100.00000 220.00000  60.00000      0   0.00000   0.00888   0.06665   0.08896   0.00000   0.00000   3.77000   3.77000   3.77000   1.00000 
    22      4 100.00000 220.00000  60.00000      0   0.00000   0.00783   0.04300   0.04962   0.00000   0.00000   3.50000   3.50000   3.50000   1.00000 
   245      4 100.00000 110.00000  60.00000      0   0.50000   0.00165   0.06901   0.00000   1.05940   0.00000   1.60000   1.60000   1.60000   1.00000 
   246      4 100.00000 110.00000  60.00000      0   0.50000   0.00165   0.06901   0.00000   1.04480   0.00000   1.60000   1.60000   1.60000   1.00000 
     5      6 100.00000 220.00000  60.00000      0   0.55000   0.00064   0.03050   0.00000   1.04350   0.60000   4.00000   4.00000   4.00000   1.00000 
     7      5 100.00000 220.00000  60.00000      0   0.00000   0.00525   0.03988   0.06195   0.00000   0.00000   3.81000   3.81000   3.81000   1.00000 
    10      5 100.00000 220.00000  60.00000      0   0.00000   0.01459   0.11219   0.16553   0.00000   0.00000   3.81000   3.81000   3.81000   1.00000 
   309      5 100.00000 110.00000  60.00000      0   0.50000   0.00165   0.06860   0.00000   1.06460   0.00000   1.60000   1.60000   1.60000   1.00000 
   309      5 100.00000 110.00000  60.00000      0   0.50000   0.00165   0.06860   0.00000   1.05230   0.00000   1.60000   1.60000   1.60000   1.00000 
     6      8 100.00000 400.00000  60.00000      0   0.00000   0.00112   0.01329   0.34125   0.00000   0.00000  13.16000  13.16000  13.16000   1.00000 
     6      9 100.00000 400.00000  60.00000      0   0.00000   0.00299   0.03675   0.91840   0.00000   0.00000  14.27000  14.27000  14.27000   1.00000 
    15      6 100.00000 400.00000  60.00000      0   0.00000   0.00298   0.03417   0.93504   0.00000   0.00000  14.27000  14.27000  14.27000   1.00000 
    31      6 100.00000 400.00000  60.00000      0   0.00000   0.00150   0.01506   0.40320   0.00000   0.00000  13.85000  13.85000  13.85000   1.00000 
   310      6 100.00000 110.00000  60.00000      0   0.27500   0.00150   0.06188   0.00000   1.06130   0.00000   2.50000   2.50000   2.50000   1.00000 
    12      7 100.00000 220.00000  60.00000      0   0.00000   0.01211   0.08742   0.14017   0.00000   0.00000   3.81000   3.81000   3.81000   1.00000 
    13      7 100.00000 220.00000  60.00000      0   0.00000   0.00205   0.01326   0.02243   0.00000   0.00000   3.35000   3.35000   3.35000   1.00000 
    19      7 100.00000 220.00000  60.00000      0   0.00000   0.00570   0.04070   0.06021   0.00000   0.00000   3.23000   3.23000   3.23000   1.00000 
    21      7 100.00000 220.00000  60.00000      0   0.00000   0.00093   0.00651   0.01113   0.00000   0.00000   1.60000   1.60000   1.60000   1.00000 
    29      7 100.00000 220.00000  60.00000      0   0.00000   0.01269   0.07498   0.13020   0.00000   0.00000   3.62000   3.62000   3.62000   1.00000 
   321      7 100.00000 110.00000  60.00000      0   0.50000   0.00041   0.03368   0.00000   1.03230   0.00000   2.50000   2.50000   2.50000   1.00000 
   322      7 100.00000 110.00000  60.00000      0   0.50000   0.00165   0.06775   0.00000   1.05690   0.00000   1.60000   1.60000   1.60000   1.00000 
     8     18 100.00000 400.00000  60.00000      0   0.00000   0.00336   0.03977   1.02163   0.00000   0.00000  13.16000  13.16000  13.16000   1.00000 
   332      9 100.00000 110.00000  60.00000      0   0.27500   0.00087   0.05244  -0.02144   1.07810   0.00000   3.30000   3.30000   3.30000   1.00000 
   171     10 100.00000 220.00000  60.00000      0   0.00000   0.01409   0.10413   0.15972   0.00000   0.00000   4.64000   4.64000   4.64000   1.00000 
   346     10 100.00000 110.00000  60.00000      0   0.50000   0.00124   0.06839   0.00000   1.00540   0.00000   1.60000   1.60000   1.60000   1.00000 
   347     10 100.00000 110.00000  60.00000      0   0.50000   0.00124   0.06839   0.00000   1.02400   0.00000   1.60000   1.60000   1.60000   1.00000 
    16     11 100.00000 220.00000  60.00000      0   0.00000   0.00570   0.03952   0.07553   0.00000   0.00000   4.64000   4.64000   4.64000   1.00000 
    17     11 100.00000 220.00000  60.00000      0   0.00000   0.00570   0.03952   0.07553   0.00000   0.00000   4.64000   4.64000   4.64000   1.00000 
   111     11 100.00000 220.00000  60.00000      0   0.00000   0.01068   0.06196   0.09496   0.00000   0.00000   3.94000   3.94000   3.94000   1.00000 
   352     11 100.00000 110.00000  60.00000      0   0.50000   0.00165   0.06901   0.00000   1.04120   0.00000   1.60000   1.60000   1.60000   1.00000 
   353     11 100.00000 110.00000  60.00000      0   0.50000   0.00165   0.06901   0.00000   1.05590   0.00000   1.60000   1.60000   1.60000   1.00000 
   140     12 100.00000 220.00000  60.00000      0   0.00000   0.01465   0.10589   0.17085   0.00000   0.00000   4.64000   4.64000   4.64000   1.00000 
   359     12 100.00000 110.00000  60.00000      0   0.50000   0.00155   0.06612   0.00000   1.03950   0.00000   1.60000   1.60000   1.60000   1.00000 
   360     12 100.00000 110.00000  60.00000      0   0.50000   0.00157   0.06612   0.00000   1.05900   0.00000   1.60000   1.60000   1.60000   1.00000 
    29     13 100.00000 220.00000  60.00000      0   0.00000   0.01345   0.08114   0.14113   0.00000   0.00000   3.39000   3.39000   3.39000   1.00000 
   365     13 100.00000 110.00000  60.00000      0   0.50000   0.00165   0.06901   0.00000   1.03120   0.00000   1.60000   1.60000   1.60000   1.00000 
   366     13 100.00000 110.00000  60.00000      0   0.50000   0.00165   0.06901   0.00000   0.98720   0.00000   1.60000   1.60000   1.60000   1.00000 
    17     14 100.00000 220.00000  60.00000      0   0.00000   0.00384   0.02853   0.04588   0.00000   0.00000   4.64000   4.64000   4.64000   1.00000 
   367     14 100.00000 110.00000  60.00000      0   0.50000   0.00157   0.06798   0.00000   1.06640   0.00000   1.60000   1.60000   1.60000   1.00000 
   368     14 100.00000 110.00000  60.00000      0   0.50000   0.00165   0.06901   0.00000   1.07770   0.00000   1.60000   1.60000   1.60000   1.00000 
    18     15 100.00000 400.00000  60.00000      0   0.00000   0.00358   0.04262   1.09440   0.00000   0.00000  16.62000  16.62000  16.62000   1.00000 
    15    165 100.00000 400.00000  60.00000      0   0.00000   0.00207   0.02474   0.66400   0.00000   0.00000   8.31000   8.31000   8.31000   1.00000 
   374     15 100.00000 110.00000  60.00000      0   0.27500   0.00150   0.06188   0.00000   1.15020   0.00000   2.50000   2.50000   2.50000   1.00000 
    16     18 100.00000 220.00000  60.00000      0   0.55000   0.00036   0.02519   0.00000   1.06050   0.00000   5.00000   5.00000   5.00000   1.00000 
    16     73 100.00000 220.00000  60.00000      0   0.00000   0.00909   0.06240   0.11142   0.00000   0.00000   4.64000   4.64000   4.64000   1.00000 
    17     18 100.00000 220.00000  60.00000      0   0.55000   0.00036   0.02519   0.00000   1.06070   0.00000   5.00000   5.00000   5.00000   1.00000 
...